tests/data/power_flow/automatic-tap-regulator/auto-tap-changer-minimal-max/input.json
{
  "version": "1.0",
  "type": "input",
  "is_batch": false,
  "attributes": {},
  "data": {
    "node": [
      {
        "id": 0,
        "u_rated": 150000.0
      },
      {
        "id": 1,
        "u_rated": 20000.0
      },
      {
        "id": 2,
        "u_rated": 10000.0
      },
      {
        "id": 3,
        "u_rated": 10000.0
      }
    ],
    "transformer": [
      {
        "id": 11,
        "from_node": 0,
        "to_node": 1,
        "from_status": 1,
        "to_status": 1,
        "u1": 150000.0,
        "u2": 20000.0,
        "sn": 60000000.0,
        "uk": 0.2,
        "pk": 200000.0,
        "i0": 0.0,
        "p0": 0.0,
        "winding_from": 1,
        "winding_to": 2,
        "clock": 1,
        "tap_side": 0,
        "tap_pos": -5,
        "tap_min": -12,
        "tap_max": 12,
        "tap_nom": 0,
        "tap_size": 2500.0
      },
      {
        "id": 12,
        "from_node": 0,
        "to_node": 1,
        "from_status": 1,
        "to_status": 0,
        "u1": 150000.0,
        "u2": 20000.0,
        "sn": 60000000.0,
        "uk": 0.2,
        "pk": 200000.0,
        "i0": 0.0,
        "p0": 0.0,
        "winding_from": 1,
        "winding_to": 2,
        "clock": 1,
        "tap_side": 0,
        "tap_pos": 5,
        "tap_min": -12,
        "tap_max": 12,
        "tap_nom": 0,
        "tap_size": 2500.0
      },
      {
        "id": 13,
        "from_node": 1,
        "to_node": 2,
        "from_status": 1,
        "to_status": 1,
        "u1": 20000.0,
        "u2": 10000.0,
        "sn": 20000000.0,
        "uk": 0.2,
        "pk": 40000.0,
        "i0": 0.0,
        "p0": 0.0,
        "winding_from": 1,
        "winding_to": 2,
        "clock": 1,
        "tap_side": 0,
        "tap_pos": 5,
        "tap_min": 12,
        "tap_max": -12,
        "tap_nom": 0,
        "tap_size": 250.0
      },
      {
        "id": 14,
        "from_node": 2,
        "to_node": 1,
        "from_status": 1,
        "to_status": 0,
        "u1": 10000.0,
        "u2": 20000.0,
        "sn": 20000000.0,
        "uk": 0.2,
        "pk": 40000.0,
        "i0": 0.0,
        "p0": 0.0,
        "winding_from": 2,
        "winding_to": 1,
        "clock": 11,
        "tap_side": 1,
        "tap_pos": -5,
        "tap_min": 12,
        "tap_max": -12,
        "tap_nom": 0,
        "tap_size": 250.0
      },
      {
        "id": 15,
        "from_node": 2,
        "to_node": 3,
        "from_status": 1,
        "to_status": 1,
        "u1": 10000.0,
        "u2": 10500.0,
        "sn": 20000000.0,
        "uk": 0.02,
        "pk": 0.0,
        "i0": 0.0,
        "p0": 0.0,
        "winding_from": 1,
        "winding_to": 1,
        "clock": 12,
        "tap_side": 0,
        "tap_pos": -5,
        "tap_min": 12,
        "tap_max": -12,
        "tap_nom": 0,
        "tap_size": 250.0
      }
    ],
    "transformer_tap_regulator": [
      {
        "id": 21,
        "status": 1,
        "regulated_object": 11,
        "control_side": 1,
        "u_set": 20000.0,
        "u_band": 2000.0,
        "line_drop_compensation_r": 0.0,
        "line_drop_compensation_x": 0.0
      },
      {
        "id": 22,
        "status": 1,
        "regulated_object": 12,
        "control_side": 1,
        "u_set": 20000.0,
        "u_band": 2000.0,
        "line_drop_compensation_r": 0.0,
        "line_drop_compensation_x": 0.0
      },
      {
        "id": 23,
        "status": 1,
        "regulated_object": 13,
        "control_side": 1,
        "u_set": 10000.0,
        "u_band": 1000.0,
        "line_drop_compensation_r": 0.0,
        "line_drop_compensation_x": 0.0
      },
      {
        "id": 24,
        "status": 1,
        "regulated_object": 14,
        "control_side": 0,
        "u_set": 10000.0,
        "u_band": 1000.0,
        "line_drop_compensation_r": 0.0,
        "line_drop_compensation_x": 0.0
      },
      {
        "id": 25,
        "status": 1,
        "regulated_object": 15,
        "control_side": 1,
        "u_set": 10500.0,
        "u_band": 1200.0,
        "line_drop_compensation_r": 0.0,
        "line_drop_compensation_x": 0.0
      }
    ],
    "source": [
      {
        "id": 4,
        "node": 0,
        "status": 1,
        "u_ref": 1.0
      }
    ]
  }
}
